Version 4
SHEET 1 880 680
WIRE 480 304 288 304
WIRE 480 416 480 304
WIRE 288 432 288 304
WIRE 288 592 288 512
WIRE 384 592 288 592
WIRE 480 592 480 528
WIRE 480 592 384 592
WIRE 384 608 384 592
FLAG 384 608 0
SYMBOL AutoGenerated\\varicap 480 464 R90
SYMATTR InstName U1
SYMBOL voltage 288 416 R0
WINDOW 123 0 0 Left 0
WINDOW 39 0 0 Left 0
SYMATTR InstName V1
SYMATTR Value 1
TEXT 256 632 Left 2 !.dc V1 -10 10
