Version 4
SHEET 1 1188 680
TEXT -24 72 Left 2 !*SPICE netlist one-way interconnected oscillators\n.subckt varicap in out\n.model vdiode D(Ron=.1 Roff=1Meg Vfwd=.4)\n \nRdump in out 1k \nR1c in 2 50.0\nC20 2 out Q=x*if(x<0,50p,150.0p/(x+2))\nD1 out 2 vdiode\n.ends
