Version 4
SHEET 1 2020 888
WIRE -208 -464 -384 -464
WIRE 0 -464 -128 -464
WIRE 0 -400 0 -464
WIRE 0 -336 -16 -336
WIRE 192 -336 0 -336
WIRE 400 -336 272 -336
WIRE 0 -320 0 -336
WIRE -384 -304 -384 -464
WIRE 400 -288 400 -336
WIRE 0 -192 0 -208
WIRE 192 -192 0 -192
WIRE 400 -192 400 -208
WIRE 400 -192 272 -192
FLAG 0 -128 0
FLAG -384 -224 0
SYMBOL cap -16 -400 R0
SYMATTR InstName C1
SYMATTR Value 100p
SYMBOL cap -16 -192 R0
SYMATTR InstName C3
SYMATTR Value 100p
SYMBOL AutoGenerated\\varicap 0 -272 R90
SYMATTR InstName U1
SYMBOL voltage 400 -304 R0
WINDOW 123 0 0 Left 0
WINDOW 39 0 0 Left 0
SYMATTR InstName V1
SYMATTR Value 1
SYMBOL voltage -384 -320 R0
WINDOW 123 0 0 Left 0
WINDOW 39 0 0 Left 0
SYMATTR InstName V2
SYMATTR Value PWL(0 0 1u 0 1.001u 1)
SYMBOL res 288 -352 R90
WINDOW 0 0 56 VBottom 2
WINDOW 3 32 56 VTop 2
SYMATTR InstName R1
SYMATTR Value 1Meg
SYMBOL res 288 -208 R90
WINDOW 0 0 56 VBottom 2
WINDOW 3 32 56 VTop 2
SYMATTR InstName R2
SYMATTR Value 1Meg
SYMBOL res -112 -480 R90
WINDOW 0 0 56 VBottom 2
WINDOW 3 32 56 VTop 2
SYMATTR InstName R3
SYMATTR Value 20k
TEXT -418 -104 Left 2 !.tran 10u
