Version 4
SHEET 1 2020 888
WIRE -144 -640 -272 -640
WIRE 32 -640 -144 -640
WIRE -272 -464 -272 -640
WIRE -208 -464 -272 -464
WIRE 0 -464 -32 -464
WIRE 64 -464 0 -464
WIRE 176 -464 144 -464
WIRE 208 -464 176 -464
WIRE 0 -400 0 -464
WIRE 0 -336 -16 -336
WIRE 192 -336 0 -336
WIRE 400 -336 272 -336
WIRE 0 -320 0 -336
WIRE 400 -288 400 -336
WIRE 0 -192 0 -208
WIRE 192 -192 0 -192
WIRE 400 -192 400 -208
WIRE 400 -192 272 -192
WIRE -176 0 -240 0
WIRE 0 0 0 -128
WIRE -240 176 -240 0
WIRE -64 176 -240 176
WIRE 176 176 -64 176
FLAG -144 -640 osc_1
FLAG -64 176 osc_2
FLAG 176 -400 0
SYMBOL CMOS -96 0 R0
SYMATTR InstName X1
SYMBOL CMOS 80 0 R0
SYMATTR InstName X2
SYMBOL CMOS 256 0 R0
SYMATTR InstName X3
SYMBOL CMOS 432 0 R0
SYMATTR InstName X4
SYMBOL CMOS 608 0 R0
SYMATTR InstName X5
SYMBOL CMOS 784 0 R0
SYMATTR InstName X6
SYMBOL CMOS -128 -464 R0
SYMATTR InstName X12
SYMBOL CMOS 288 -464 R0
SYMATTR InstName X13
SYMBOL CMOS 464 -464 R0
SYMATTR InstName X14
SYMBOL CMOS 640 -464 R0
SYMATTR InstName X15
SYMBOL CMOS 816 -464 R0
SYMATTR InstName X16
SYMBOL CMOS 912 -544 R270
SYMATTR InstName X7
SYMBOL CMOS 880 80 R90
SYMATTR InstName X18
SYMBOL CMOS 800 176 R180
SYMATTR InstName X19
SYMBOL CMOS 624 176 R180
SYMATTR InstName X20
SYMBOL CMOS 448 176 R180
SYMATTR InstName X21
SYMBOL CMOS 272 176 R180
SYMATTR InstName X22
SYMBOL CMOS 832 -640 R180
SYMATTR InstName X8
SYMBOL CMOS 656 -640 R180
SYMATTR InstName X9
SYMBOL CMOS 480 -640 R180
SYMATTR InstName X10
SYMBOL CMOS 304 -640 R180
SYMATTR InstName X11
SYMBOL CMOS 128 -640 R180
SYMATTR InstName X17
SYMBOL res 160 -480 R90
WINDOW 0 0 56 VBottom 2
WINDOW 3 32 56 VTop 2
SYMATTR InstName R1
SYMATTR Value 10k
SYMBOL cap -16 -400 R0
SYMATTR InstName C1
SYMATTR Value 100p
SYMBOL cap -16 -192 R0
SYMATTR InstName C3
SYMATTR Value 100p
SYMBOL cap 160 -464 R0
SYMATTR InstName C4
SYMATTR Value 10p
SYMBOL AutoGenerated\\varicap 0 -272 R90
SYMATTR InstName U1
SYMBOL res 288 -352 R90
WINDOW 0 0 56 VBottom 2
WINDOW 3 32 56 VTop 2
SYMATTR InstName R2
SYMATTR Value 1Meg
SYMBOL res 288 -208 R90
WINDOW 0 0 56 VBottom 2
WINDOW 3 32 56 VTop 2
SYMATTR InstName R3
SYMATTR Value 1Meg
SYMBOL voltage 400 -304 R0
WINDOW 123 0 0 Left 0
WINDOW 39 0 0 Left 0
SYMATTR InstName V1
SYMATTR Value 5
TEXT -656 56 Left 2 !.include BSIM4_models.txt
TEXT -656 104 Left 2 !.ic v(osc_2)=1
TEXT -656 -592 Left 2 !.include BSIM4_models.txt
TEXT -656 -544 Left 2 !.ic v(osc_1)=1
TEXT -656 -504 Left 2 !.tran 10000u
TEXT -656 144 Left 2 !;tran 10000u
