Version 4
SHEET 1 2020 888
WIRE -144 -640 -272 -640
WIRE 32 -640 -144 -640
WIRE -272 -464 -272 -640
WIRE -208 -464 -272 -464
WIRE 0 -464 -32 -464
WIRE 48 -464 0 -464
WIRE 208 -464 128 -464
WIRE 0 -320 0 -464
WIRE -176 -160 -240 -160
WIRE 0 -160 0 -256
WIRE -240 16 -240 -160
WIRE -64 16 -240 16
WIRE 176 16 -64 16
FLAG -144 -640 osc_1
FLAG -64 16 osc_2
SYMBOL CMOS -96 -160 R0
SYMATTR InstName X1
SYMBOL CMOS 80 -160 R0
SYMATTR InstName X2
SYMBOL CMOS 256 -160 R0
SYMATTR InstName X3
SYMBOL CMOS 432 -160 R0
SYMATTR InstName X4
SYMBOL CMOS 608 -160 R0
SYMATTR InstName X5
SYMBOL CMOS 784 -160 R0
SYMATTR InstName X6
SYMBOL CMOS -128 -464 R0
SYMATTR InstName X12
SYMBOL CMOS 288 -464 R0
SYMATTR InstName X13
SYMBOL CMOS 464 -464 R0
SYMATTR InstName X14
SYMBOL CMOS 640 -464 R0
SYMATTR InstName X15
SYMBOL CMOS 816 -464 R0
SYMATTR InstName X16
SYMBOL res 144 -480 R90
WINDOW 0 0 56 VBottom 2
WINDOW 3 32 56 VTop 2
SYMATTR InstName R1
SYMATTR Value 1e5
SYMBOL CMOS 912 -544 R270
SYMATTR InstName X7
SYMBOL CMOS 880 -80 R90
SYMATTR InstName X18
SYMBOL CMOS 800 16 R180
SYMATTR InstName X19
SYMBOL CMOS 624 16 R180
SYMATTR InstName X20
SYMBOL CMOS 448 16 R180
SYMATTR InstName X21
SYMBOL CMOS 272 16 R180
SYMATTR InstName X22
SYMBOL CMOS 832 -640 R180
SYMATTR InstName X8
SYMBOL CMOS 656 -640 R180
SYMATTR InstName X9
SYMBOL CMOS 480 -640 R180
SYMATTR InstName X10
SYMBOL CMOS 304 -640 R180
SYMATTR InstName X11
SYMBOL CMOS 128 -640 R180
SYMATTR InstName X17
SYMBOL cap -16 -320 R0
SYMATTR InstName C1
SYMATTR Value 2e-14
TEXT -656 -104 Left 2 !.include BSIM4_models.txt
TEXT -656 -56 Left 2 !.ic v(osc_2)=1
TEXT -656 -16 Left 2 !.tran 100n
TEXT -656 -592 Left 2 !.include BSIM4_models.txt
TEXT -656 -544 Left 2 !.ic v(osc_1)=1
TEXT -656 -504 Left 2 !;tran 100n
